/*---------------------------------------------------------------------------*\
| =========                 |                                                 |
| \\      /  F ield         | OpenFOAM: The Open Source CFD Toolbox           |
|  \\    /   O peration     | Version:  v2012                                 |
|   \\  /    A nd           | Website:  www.openfoam.com                      |
|    \\/     M anipulation  |                                                 |
\*---------------------------------------------------------------------------*/
Build  : _7bdb509494-20201222 OPENFOAM=2012
Arch   : "LSB;label=32;scalar=64"
Exec   : checkMesh
Date   : Mar 02 2021
Time   : 16:40:40
Host   : pop-os
PID    : 315509
I/O    : uncollated
Case   : /home/wsadowski/Documents/Projekty/openfoam-utils/cases/euler_channel/poly
nProcs : 1
trapFpe: Floating point exception trapping enabled (FOAM_SIGFPE).
fileModificationChecking : Monitoring run-time modified files using timeStampMaster (fileModificationSkew 5, maxFileModificationPolls 20)
allowSystemOperations : Allowing user-supplied system call operations

// * * * * * * * * * * * * * * * * * * * * * * * * * * * * * * * * * * * * * //
Create time

Create mesh for time = 0

Time = 0

Mesh stats
    points:           455850
    faces:            569549
    internal faces:   557785
    cells:            82928
    faces per cell:   13.59412985
    boundary patches: 6
    point zones:      0
    face zones:       0
    cell zones:       0

Overall number of cells of each type:
    hexahedra:     4
    prisms:        0
    wedges:        0
    pyramids:      0
    tet wedges:    0
    tetrahedra:    0
    polyhedra:     82924
    Breakdown of polyhedra by number of faces:
        faces   number of cells
            7   9
            8   49
            9   888
           10   3486
           11   7870
           12   10086
           13   15126
           14   18886
           15   14258
           16   8299
           17   2924
           18   843
           19   178
           20   21
           21   1

Checking topology...
    Boundary definition OK.
    Cell to face addressing OK.
    Point usage OK.
    Upper triangular ordering OK.
    Face vertices OK.
    Number of regions: 1 (OK).

Checking patch topology for multiply connected surfaces...
                   Patch    Faces   Points                  Surface topology
                      zp     1967     3928  ok (non-closed singly connected)
                      zm     1959     3914  ok (non-closed singly connected)
                      xm     1971     3936  ok (non-closed singly connected)
                      xp     1971     3936  ok (non-closed singly connected)
                      yp     1948     3897  ok (non-closed singly connected)
                      ym     1948     3897  ok (non-closed singly connected)

Checking faceZone topology for multiply connected surfaces...
    No faceZones found.

Checking basic cellZone addressing...
    No cellZones found.

Checking geometry...
    Overall domain bounding box (0 -0.5 0) (1 0.5 1)
    Mesh has 3 geometric (non-empty/wedge) directions (1 1 1)
    Mesh has 3 solution (non-empty) directions (1 1 1)
    Boundary openness (-1.967465542e-16 6.476300977e-17 -1.619075244e-17) OK.
    Max cell openness = 1.624388104e-16 OK.
    Max aspect ratio = 2.784896992 OK.
    Minimum face area = 1.129235779e-06. Maximum face area = 0.000730806607.  Face area magnitudes OK.
    Min volume = 1.26973808e-06. Max volume = 1.81292899e-05.  Total volume = 1.  Cell volumes OK.
    Mesh non-orthogonality Max: 38.64864648 average: 2.916332896
    Non-orthogonality check OK.
    Face pyramids OK.
    Max skewness = 1.496922999 OK.
    Coupled point location match (average 0) OK.

Mesh OK.

End

